omega_1
  -OEChem-03311621263D

 40 42  0     0  0  0  0  0  0999 V2000
   14.0267   -8.1749   10.9117 C   0  0  0  0  0  0  0  0  0  0  0  0
   13.7041   -9.0281    9.8565 C   0  0  0  0  0  0  0  0  0  0  0  0
   13.2548   -8.1798   12.0736 C   0  0  0  0  0  0  0  0  0  0  0  0
    9.7343  -22.3162   12.1281 C   0  0  0  0  0  0  0  0  0  0  0  0
   10.7339  -22.9543   11.4022 C   0  0  0  0  0  0  0  0  0  0  0  0
   12.6096   -9.8862    9.9630 C   0  0  0  0  0  0  0  0  0  0  0  0
   12.1603   -9.0380   12.1801 C   0  0  0  0  0  0  0  0  0  0  0  0
   12.0763  -12.7482   11.1968 C   0  0  0  0  0  0  0  0  0  0  0  0
    9.9622  -12.6532   10.0312 C   0  0  0  0  0  0  0  0  0  0  0  0
   12.2434  -14.0707   10.7859 C   0  0  0  0  0  0  0  0  0  0  0  0
   10.1293  -13.9757    9.6203 C   0  0  0  0  0  0  0  0  0  0  0  0
    9.4512  -20.9773   11.8823 C   0  0  0  0  0  0  0  0  0  0  0  0
   11.4157  -22.2151   10.4491 C   0  0  0  0  0  0  0  0  0  0  0  0
   11.8377   -9.8912   11.1248 C   0  0  0  0  0  0  0  0  0  0  0  0
   10.9356  -12.0395   10.8195 C   0  0  0  0  0  0  0  0  0  0  0  0
   11.2700  -14.6844    9.9976 C   0  0  0  0  0  0  0  0  0  0  0  0
   10.1906  -20.3265   10.9078 C   0  0  0  0  0  0  0  0  0  0  0  0
    9.9281  -18.9085   10.6101 C   0  0  0  0  0  0  0  0  0  0  0  0
   10.5624  -18.1833    9.6757 C   0  0  0  0  0  0  0  0  0  0  0  0
   10.2501  -16.7476    9.3988 C   0  0  0  0  0  0  0  0  0  0  0  0
   11.1690  -20.9130   10.1823 N   0  0  0  0  0  0  0  0  0  0  0  0
   10.7687  -10.7271   11.2286 O   0  0  0  0  0  0  0  0  0  0  0  0
   11.4330  -15.9749    9.5969 O   0  0  0  0  0  0  0  0  0  0  0  0
   14.8791   -7.5070   10.8294 H   0  0  0  0  0  0  0  0  0  0  0  0
   14.3050   -9.0243    8.9516 H   0  0  0  0  0  0  0  0  0  0  0  0
   13.5067   -7.5152   12.8950 H   0  0  0  0  0  0  0  0  0  0  0  0
    9.1766  -22.8622   12.8831 H   0  0  0  0  0  0  0  0  0  0  0  0
   10.9718  -23.9971   11.5776 H   0  0  0  0  0  0  0  0  0  0  0  0
   12.3628  -10.5474    9.1368 H   0  0  0  0  0  0  0  0  0  0  0  0
   11.5614   -9.0362   13.0868 H   0  0  0  0  0  0  0  0  0  0  0  0
   12.8368  -12.2763   11.8127 H   0  0  0  0  0  0  0  0  0  0  0  0
    9.0713  -12.1061    9.7350 H   0  0  0  0  0  0  0  0  0  0  0  0
   13.1345  -14.6174   11.0817 H   0  0  0  0  0  0  0  0  0  0  0  0
    9.3676  -14.4486    9.0065 H   0  0  0  0  0  0  0  0  0  0  0  0
    8.6722  -20.4727   12.4450 H   0  0  0  0  0  0  0  0  0  0  0  0
   12.2054  -22.6656    9.8569 H   0  0  0  0  0  0  0  0  0  0  0  0
    9.1395  -18.4421   11.1964 H   0  0  0  0  0  0  0  0  0  0  0  0
   11.3343  -18.6310    9.0555 H   0  0  0  0  0  0  0  0  0  0  0  0
    9.9281  -16.6331    8.3590 H   0  0  0  0  0  0  0  0  0  0  0  0
    9.4658  -16.3590   10.0560 H   0  0  0  0  0  0  0  0  0  0  0  0
  1  2  1  0  0  0  0
  1  3  2  0  0  0  0
  2  6  2  0  0  0  0
  3  7  1  0  0  0  0
  4  5  1  0  0  0  0
  4 12  2  0  0  0  0
  5 13  2  0  0  0  0
  6 14  1  0  0  0  0
  7 14  2  0  0  0  0
  8 10  2  0  0  0  0
  8 15  1  0  0  0  0
  9 11  1  0  0  0  0
  9 15  2  0  0  0  0
 10 16  1  0  0  0  0
 11 16  2  0  0  0  0
 12 17  1  0  0  0  0
 13 21  1  0  0  0  0
 14 22  1  0  0  0  0
 15 22  1  0  0  0  0
 16 23  1  0  0  0  0
 17 18  1  0  0  0  0
 17 21  2  0  0  0  0
 18 19  2  0  0  0  0
 19 20  1  0  0  0  0
 20 23  1  0  0  0  0
  1 24  1  0  0  0  0
  2 25  1  0  0  0  0
  3 26  1  0  0  0  0
  4 27  1  0  0  0  0
  5 28  1  0  0  0  0
  6 29  1  0  0  0  0
  7 30  1  0  0  0  0
  8 31  1  0  0  0  0
  9 32  1  0  0  0  0
 10 33  1  0  0  0  0
 11 34  1  0  0  0  0
 12 35  1  0  0  0  0
 13 36  1  0  0  0  0
 18 37  1  0  0  0  0
 19 38  1  0  0  0  0
 20 39  1  0  0  0  0
 20 40  1  0  0  0  0
M  END
> <FRED Chemgauss4 score>
-17.856016

> <Pose Index>
1

$$$$
